psse/maple_debug_v23.RAW
 0,    100.00, 23, 0, 0, 60.00       / February 21, 2023 10:48:38; Simulator Version 22; BuildDate 2021_4_8


    1 3    0.000    0.000    0.000    0.000   1 1.00000   86.9383 'bus_1_~1' 230.00   1
    2 1    0.000    0.000    0.000    0.000   1 0.98804   85.4819 'bus_2_~1' 230.00   1
    3 1    0.000    0.000    0.000    0.000   1 0.97739   84.4217 'bus_3_~1' 115.00   1
    4 1    0.000    0.000    0.000    0.000   1 0.97482   84.1830 'bus_4_~1' 115.00   1
    5 1   65.000   20.000    0.000    0.000   1 0.95980   81.6659 'bus_5_~1' 34.500   1
    6 1   60.000   20.000    0.000    0.000   1 0.96082   82.0328 'bus_6_~1' 34.500   1
    7 1   36.000   10.000    0.000    0.000   1 0.95339   80.4330 'bus_7_~1' 12.470   1
    8 1   16.000    5.100    0.000    0.000   1 0.95773   81.4515 'bus_8_~1' 12.470   1
    9 1    7.000    1.600    0.000    0.000   1 0.96017   81.9639 'bus_9_4 ' 4.0000   1
   10 1   12.000    4.000    0.000    0.000   1 0.96019   81.9459 'bus_10_4' 4.0000   1
0
    1 1     197.733     73.838    100.000   -100.000 1.00000     0    100.000    0.00000    1.00000    0.00000    0.00000 1.00000 1   100.0    250.000      0.000
0
     1      2 1  4.00000E-3 4.00000E-2 8.00000E-2    0.00    0.00    0.00,,,   0.00000   0.00000   0.00000   0.00000 1
     1      3 1  4.00000E-3 3.40000E-2 0.00000E-1    0.00    0.00    0.00 1.00000    0.000   0.00000   0.00000   0.00000   0.00000 1
     2      4 1  6.00000E-3 3.60000E-2 0.00000E-1    0.00    0.00    0.00 1.00000    0.000   0.00000   0.00000   0.00000   0.00000 1
     3      4 1  8.00000E-3 3.00000E-2 4.00000E-3    0.00    0.00    0.00,,,   0.00000   0.00000   0.00000   0.00000 1
     3      5 1  1.50000E-3 3.90000E-2 0.00000E-1    0.00    0.00    0.00 1.00000    0.000   0.00000   0.00000   0.00000   0.00000 1
     4      6 1  1.60000E-3 4.50000E-2 0.00000E-1    0.00    0.00    0.00 1.00000    0.000   0.00000   0.00000   0.00000   0.00000 1
     5      7 1  1.10000E-3 5.50000E-2 0.00000E-1    0.00    0.00    0.00 1.00000    0.000   0.00000   0.00000   0.00000   0.00000 1
     5      8 1  5.00000E-3 2.31000E-2 0.00000E-1    0.00    0.00    0.00 1.00000    0.000   0.00000   0.00000   0.00000   0.00000 1
     6      9 1  5.00000E-3 1.70000E-2 0.00000E-1    0.00    0.00    0.00 1.00000    0.000   0.00000   0.00000   0.00000   0.00000 1
     6     10 1  1.00000E-3 1.20000E-2 0.00000E-1    0.00    0.00    0.00 1.00000    0.000   0.00000   0.00000   0.00000   0.00000 1
 0
    3     5 1      -3  1.10000  0.90000  1.01000  0.99000  0.00625  0 1  0.00000  0.00000
0
   1     0      0.000      1.000 '1       '
0
0
0
0
0
0
   1 '1       '
0
0
